Version 4.1
SHEET 1 1712 680
WIRE 192 -320 160 -320
WIRE 1040 -240 976 -240
WIRE 1168 -240 1104 -240
WIRE 1248 -240 1168 -240
WIRE 1424 -240 1312 -240
WIRE 1632 -240 1424 -240
WIRE 1632 -192 1632 -240
WIRE 1168 -176 1168 -240
WIRE 1424 -176 1424 -240
WIRE 112 -160 16 -160
WIRE 160 -160 160 -320
WIRE 160 -160 112 -160
WIRE 208 -160 160 -160
WIRE 304 -160 208 -160
WIRE 1552 -160 1552 -256
WIRE 16 -32 16 -160
WIRE 112 -32 112 -160
WIRE 208 -32 208 -160
WIRE 304 -32 304 -160
WIRE 1168 -16 1168 -112
WIRE 1424 -16 1424 -112
WIRE 1552 -16 1552 -96
WIRE 1632 -16 1632 -112
WIRE 16 144 16 48
WIRE 16 144 -112 144
WIRE 32 144 16 144
WIRE 144 144 96 144
WIRE 224 144 192 144
WIRE 304 144 304 48
WIRE 304 144 288 144
WIRE 496 144 304 144
WIRE 16 240 16 144
WIRE 304 240 304 144
WIRE 112 288 112 48
WIRE 112 288 80 288
WIRE 128 288 192 144
WIRE 128 288 112 288
WIRE 192 288 144 144
WIRE 208 288 208 48
WIRE 208 288 192 288
WIRE 240 288 208 288
WIRE 16 416 16 336
WIRE 304 416 304 336
FLAG 16 416 0
FLAG 304 416 0
FLAG 496 144 _q
FLAG -112 144 q
FLAG 1168 -16 q
FLAG 1424 -16 _q
FLAG 1632 -16 0
FLAG 1552 -16 0
SYMBOL res 0 -48 R0
SYMATTR InstName R1
SYMATTR Value 10k
SYMBOL res 288 -48 R0
SYMATTR InstName R4
SYMATTR Value 10k
SYMBOL npn 240 240 R0
SYMATTR InstName Q1
SYMATTR Value BC547C
SYMBOL npn 80 240 M0
SYMATTR InstName Q2
SYMATTR Value BC547C
SYMBOL TCLib\\Vcc 176 -336 R0
SYMATTR InstName U1
SYMBOL res 96 -48 R0
SYMATTR InstName R2
SYMATTR Value 1Meg
SYMBOL res 192 -48 R0
SYMATTR InstName R3
SYMATTR Value 1Meg
SYMBOL cap 288 128 R90
WINDOW 0 0 32 VBottom 2
WINDOW 3 32 32 VTop 2
SYMATTR InstName C2
SYMATTR Value 8.2n
SYMBOL cap 96 128 R90
WINDOW 0 0 32 VBottom 2
WINDOW 3 32 32 VTop 2
SYMATTR InstName C1
SYMATTR Value 8.2n
SYMBOL TCLib\\Vcc 992 -224 R180
SYMATTR InstName U2
SYMBOL diode 1040 -224 R270
WINDOW 0 32 32 VTop 2
WINDOW 3 0 32 VBottom 2
SYMATTR InstName D1
SYMATTR Value 1N4007
SYMBOL diode 1248 -224 R270
WINDOW 0 32 32 VTop 2
WINDOW 3 0 32 VBottom 2
SYMATTR InstName D2
SYMATTR Value 1N4007
SYMBOL cap 1152 -176 R0
SYMATTR InstName C3
SYMATTR Value 1”
SYMBOL cap 1408 -176 R0
SYMATTR InstName C4
SYMATTR Value 1”
SYMBOL res 1616 -208 R0
SYMATTR InstName R5
SYMATTR Value 100k
SYMBOL cap 1536 -160 R0
SYMATTR InstName C5
TEXT 0 -224 Left 2 !.tran 1
