Version 4.1
SHEET 1 880 680
WIRE 32 -192 -48 -192
WIRE 160 -192 112 -192
WIRE 256 -192 224 -192
WIRE 32 -144 32 -192
WIRE -48 -96 -48 -192
WIRE -48 -96 -80 -96
WIRE -16 -96 -48 -96
WIRE 112 -96 112 -192
WIRE 112 -96 64 -96
WIRE 144 -96 112 -96
WIRE 256 -96 256 -192
WIRE 256 -96 224 -96
WIRE 320 -96 256 -96
WIRE 432 -96 400 -96
WIRE -160 -32 -160 -80
WIRE 192 -16 160 -16
WIRE 160 64 160 -16
WIRE 432 80 432 -96
WIRE 432 80 208 80
WIRE 528 80 432 80
WIRE -160 112 -160 48
WIRE -80 112 -80 -96
WIRE -80 112 -160 112
WIRE 96 112 -80 112
WIRE 272 144 208 144
WIRE 112 192 112 160
WIRE 112 192 80 192
WIRE 160 224 160 160
WIRE 192 224 160 224
WIRE 432 240 432 80
WIRE -80 272 -80 112
WIRE 64 272 -80 272
WIRE 272 272 272 144
WIRE 272 272 144 272
WIRE 272 336 272 272
WIRE 272 496 272 416
WIRE 432 496 432 304
FLAG 272 496 0
FLAG 432 496 0
FLAG 528 80 Vr
SYMBOL TCLib\\LM311 16 64 M0
SYMATTR InstName U1
SYMBOL res -176 -48 R0
SYMATTR InstName R3
SYMATTR Value 1k
SYMBOL res 240 -112 R90
WINDOW 0 3 56 VBottom 2
WINDOW 3 27 56 VTop 2
SYMATTR InstName R4
SYMATTR Value 1k
SYMBOL res 416 -112 R90
WINDOW 0 3 56 VBottom 2
WINDOW 3 27 56 VTop 2
SYMATTR InstName R5
SYMATTR Value 1k
SYMBOL res 288 432 R180
WINDOW 0 36 76 Left 2
WINDOW 3 36 40 Left 2
SYMATTR InstName R2
SYMATTR Value 10k
SYMBOL res 48 288 R270
WINDOW 0 27 56 VTop 2
WINDOW 3 3 56 VBottom 2
SYMATTR InstName R1
SYMATTR Value 10k
SYMBOL TCLib\\Vcc 176 -32 R0
SYMATTR Value V=10
SYMATTR InstName U2
SYMBOL TCLib\\Vcc 176 208 R0
SYMATTR Value V=-10
SYMATTR InstName U3
SYMBOL TCLib\\Vcc 96 208 R180
SYMATTR Value V=-10
SYMATTR InstName U4
SYMBOL TCLib\\Vcc -176 -64 R270
SYMATTR Value V=10
SYMATTR InstName U5
SYMBOL cap 416 240 R0
WINDOW 123 24 84 Left 2
SYMATTR InstName C1
SYMATTR Value 1n
SYMBOL diode 160 -176 R270
WINDOW 0 32 32 VTop 2
WINDOW 3 0 32 VBottom 2
SYMATTR InstName D1
SYMATTR Value 1N4007
SYMBOL TCLib\\pot -32 -80 R270
SYMATTR InstName P1
SYMATTR Value R=20K
SYMATTR Value2 cur=0
TEXT 352 -296 Left 2 !.tran 0 1100u 1000u
RECTANGLE Normal 736 560 -336 -256 2
