Version 4.1
SHEET 1 1096 680
WIRE 208 -704 208 -784
WIRE 208 -704 -256 -704
WIRE -256 -640 -256 -704
WIRE 208 -640 208 -704
WIRE -112 -592 -192 -592
WIRE -64 -592 -112 -592
WIRE 80 -592 16 -592
WIRE -112 -544 -112 -592
WIRE 80 -512 80 -592
WIRE 208 -512 208 -560
WIRE 208 -512 80 -512
WIRE -256 -464 -256 -544
WIRE -256 -464 -480 -464
WIRE 208 -432 208 -512
WIRE -112 -416 -112 -464
WIRE 144 -384 112 -384
WIRE 112 -304 112 -384
WIRE -480 -256 -480 -464
WIRE 48 -256 -480 -256
WIRE 112 -160 112 -208
WIRE 208 -160 208 -336
WIRE 208 -160 112 -160
WIRE -480 80 -480 -256
WIRE -208 80 -208 -80
WIRE -880 128 -992 128
WIRE -672 128 -800 128
WIRE -544 128 -672 128
WIRE -32 128 -144 128
WIRE 48 128 -32 128
WIRE 208 128 208 -160
WIRE 208 128 128 128
WIRE 304 128 208 128
WIRE -672 208 -672 128
WIRE -480 224 -480 176
WIRE -352 224 -480 224
WIRE -208 224 -208 176
WIRE -208 224 -352 224
WIRE -32 224 -32 128
WIRE 208 240 208 128
WIRE -352 272 -352 224
WIRE -672 384 -672 272
WIRE -352 384 -352 352
WIRE 208 384 208 320
WIRE -176 416 -224 416
WIRE -32 416 -32 304
WIRE -32 416 -96 416
WIRE -32 448 -32 416
WIRE 1040 544 1040 464
WIRE -32 576 -32 512
FLAG 1040 544 0
FLAG -352 384 0
FLAG -672 384 0
FLAG -32 576 0
FLAG 304 128 Vo
FLAG -112 -416 0
FLAG 208 384 0
SYMBOL res 192 224 R0
SYMATTR InstName R1
SYMATTR Value {R}
SYMBOL res -16 320 R180
WINDOW 0 36 76 Left 2
WINDOW 3 36 40 Left 2
SYMATTR InstName R3
SYMATTR Value 2.4k
SYMBOL npn -144 80 M0
SYMATTR InstName Q1
SYMATTR Value BC547C
SYMBOL npn -544 80 R0
SYMATTR InstName Q2
SYMATTR Value BC547C
SYMBOL res -368 256 R0
SYMATTR InstName R2
SYMATTR Value 2.2k
SYMBOL res -784 112 R90
WINDOW 0 3 56 VBottom 2
WINDOW 3 27 56 VTop 2
SYMATTR InstName R4
SYMATTR Value 390
SYMBOL diode -656 272 R180
WINDOW 0 24 64 Left 2
WINDOW 3 24 0 Left 2
SYMATTR InstName D1
SYMATTR Value UDZV11B
SYMBOL diode -16 512 R180
WINDOW 0 24 64 Left 2
WINDOW 3 24 0 Left 2
SYMATTR InstName D2
SYMATTR Value KDZV12B
SYMBOL res -80 400 R90
WINDOW 0 3 56 VBottom 2
WINDOW 3 27 56 VTop 2
SYMATTR InstName R5
SYMATTR Value 390
SYMBOL TCLib\\Vcc -976 144 R180
SYMATTR InstName U2
SYMBOL TCLib\\Vcc -224 -64 R270
SYMATTR InstName U3
SYMBOL TCLib\\Vcc -208 432 R180
SYMATTR InstName U4
SYMBOL pnp 48 -208 M180
SYMATTR InstName Q3
SYMATTR Value 2N2907
SYMBOL pnp 144 -336 M180
SYMATTR InstName Q4
SYMATTR Value TIP32C
SYMBOL TCLib\\Vcc 192 -800 R0
SYMATTR InstName U5
SYMBOL res 144 112 R90
WINDOW 0 3 56 VBottom 2
WINDOW 3 27 56 VTop 2
SYMATTR InstName R6
SYMATTR Value {20k *k}
SYMBOL res 192 -656 R0
SYMATTR InstName R7
SYMATTR Value 0.47
SYMBOL pnp -192 -544 R180
SYMATTR InstName Q5
SYMATTR Value BC557C
SYMBOL res 32 -608 R90
WINDOW 0 3 56 VBottom 2
WINDOW 3 27 56 VTop 2
SYMATTR InstName R8
SYMATTR Value 1k
SYMBOL res -96 -448 R180
WINDOW 0 36 76 Left 2
WINDOW 3 36 40 Left 2
SYMATTR InstName R9
SYMATTR Value 1k
TEXT 664 232 Left 2 ;.step param k 10m 1 10m
TEXT -1088 600 Left 2 ;.op
TEXT 720 152 Left 2 !.param k = 0.1
