Version 4.1
SHEET 1 880 680
WIRE 80 16 0 16
WIRE 80 48 80 16
WIRE 0 96 0 16
WIRE 0 96 -112 96
WIRE 32 96 0 96
WIRE 144 96 112 96
WIRE 256 96 224 96
WIRE 368 96 336 96
WIRE 448 96 368 96
WIRE 368 192 368 96
WIRE 368 336 368 256
FLAG 368 336 0
FLAG -112 96 Vi
FLAG 448 96 Vr
SYMBOL TCLib\\pot 16 112 R270
SYMATTR InstName P1
SYMBOL res 240 80 R90
WINDOW 0 3 56 VBottom 2
WINDOW 3 27 56 VTop 2
SYMATTR InstName R4
SYMATTR Value 1k
SYMBOL cap 352 192 R0
SYMATTR InstName C1
SYMATTR Value 1n
SYMBOL res 352 80 R90
WINDOW 0 3 56 VBottom 2
WINDOW 3 27 56 VTop 2
SYMATTR InstName R5
SYMATTR Value 1k
RECTANGLE Normal 528 416 -176 -48 2
