Version 4.1
SHEET 1 880 680
WIRE 208 16 128 16
WIRE 208 48 208 16
WIRE 16 96 0 96
WIRE 128 96 128 16
WIRE 128 96 96 96
WIRE 160 96 128 96
WIRE 288 96 240 96
WIRE 400 96 368 96
WIRE 448 96 400 96
WIRE 128 176 128 96
WIRE 400 192 400 96
WIRE 128 336 128 256
WIRE 400 336 400 256
FLAG 400 336 0
FLAG 0 96 Vi-Vd
FLAG 448 96 Vr
FLAG 128 336 0
SYMBOL TCLib\\pot 144 112 R270
SYMATTR InstName P1
SYMBOL cap 384 192 R0
SYMATTR InstName C1
SYMATTR Value 1n
SYMBOL res 384 80 R90
WINDOW 0 3 56 VBottom 2
WINDOW 3 27 56 VTop 2
SYMATTR InstName R5
SYMATTR Value 1k
SYMBOL res 112 80 R90
WINDOW 0 3 56 VBottom 2
WINDOW 3 27 56 VTop 2
SYMATTR InstName R3
SYMATTR Value 1k
SYMBOL res 112 160 R0
SYMATTR InstName Rx
SYMATTR Value 20k
RECTANGLE Normal 528 384 -80 -32 2
